* SPICE NETLIST
***************************************

.SUBCKT L POS NEG SUB
.ENDS
***************************************
.SUBCKT hbjhb
** N=5 EP=0 IP=0 FDC=1
R0 1 2 1987.88 L=2e-06 W=1e-06 $SUB=4 $[RNHR1000_MM] $X=410 $Y=-190 $D=45
.ENDS
***************************************
