* LVS netlist generated with ICnet by 'dlavila' on Tue Jan 21 2014 at 00:01:21

*
* Component pathname : $SC_filter/default.group/logic.views/inv_X2
*
.subckt inv_X2  O I Vdd Vss

        M1 O I Vss Vss n_18_mm w=0.5u l=0.18u m=1
        M2 O I Vdd Vdd p_18_mm w=1.5u l=0.18u m=1
.ends inv_X2

