* LVS netlist generated with ICnet by 'dlavila' on Mon Jan 20 2014 at 23:51:05

*
* Component pathname : $SC_filter/default.group/logic.views/inv_X4
*
.subckt inv_X4  O I Vdd Vss

        M1 O I Vss Vss n_18_mm w=1u l=0.18u m=1
        M2 O I Vdd Vdd p_18_mm w=3u l=0.18u m=1
.ends inv_X4

