* File: BUFFER_2.pex.netlist.pex
* Created: Fri Jan 10 15:56:25 2014
* Program "Calibre xRC"
* Version "v2013.2_18.13"
* Nominal Temperature: 25C
* Circuit Temperature: 25C
* 
.subckt PM_BUFFER_2_ND9 43 45 46 52 55 59 62 65 69 73 76 81 82 85 88 93 94 97
+ 100 103 107 111 114 119 123 126 131 132 135 138 143 144 147 150 155 161 162
+ 164 165 166 167 168 169 170 171 173 175 177 178 179 180 181 183 187 188 197
+ 203 204 207 212 217 222 223 225 227 229 230 235 239 241 245 265 272 277 278
+ 280 284 285 287 289 293 311 318 320 322 325 329 334 339 340 341 342 343 344
+ 345 346 348 349 350 354 358 361 364 366 367 370 372 373 375 377 378 379 380
+ 382 383 386 387 389 390 391 392 393 396 399 402 404 405 408 449 451 455 457
+ 459 460 462 466 468 470 473 476 478 482 484 486 487 489 493 495 497 498 500
+ 504 506 508 509 511 515 517 519 520 522 526 528 530 531 533 537 539 541 542
+ 544 548 550 552 553 555 559 561 563 564 566 570 572 574 575 577 581 583 585
+ 586 588 592 594 596 597 599 603 605 607 608 610 614 616 618 619 621 625 627
+ 629 630 632 636 638 640 642 643 646 648 652 654 656 657 659 663 665 667 668
+ 670 674 676 678 679 681 683 685 687 689 691 693 695 697 699 701 703 705 707
+ 709 711 713 715 717 759 765 766 767 773 776 779 782 785 788 791 794 797 798
+ 803 804 806 811 812 814 867 870 873 876 879 882 885 888 891 894 897 900 903
+ 906 909 912
c1850 912 0 0.0100393f
c1851 909 0 0.0100393f
c1852 906 0 0.0120539f
c1853 903 0 0.00442815f
c1854 900 0 0.00926094f
c1855 897 0 0.00435874f
c1856 894 0 0.00449904f
c1857 891 0 0.0081193f
c1858 888 0 0.00449904f
c1859 885 0 0.0081193f
c1860 882 0 0.00926094f
c1861 879 0 0.00435874f
c1862 876 0 0.0120508f
c1863 873 0 0.00442815f
c1864 870 0 0.010021f
c1865 867 0 0.010021f
c1866 717 0 0.0233013f
c1867 715 0 0.0197963f
c1868 713 0 0.0197963f
c1869 711 0 0.0197692f
c1870 709 0 0.0198452f
c1871 707 0 0.0197692f
c1872 705 0 0.0198452f
c1873 703 0 0.0197204f
c1874 701 0 0.0197963f
c1875 699 0 0.0233115f
c1876 697 0 0.0233095f
c1877 695 0 0.0197204f
c1878 693 0 0.0197963f
c1879 691 0 0.0197692f
c1880 689 0 0.0198452f
c1881 687 0 0.0197692f
c1882 685 0 0.0198452f
c1883 683 0 0.0197963f
c1884 681 0 0.0197963f
c1885 679 0 0.0233033f
c1886 678 0 0.0414718f
c1887 676 0 0.0242797f
c1888 674 0 0.0417678f
c1889 668 0 0.041548f
c1890 667 0 0.0386131f
c1891 665 0 0.0198452f
c1892 663 0 0.0355359f
c1893 657 0 0.0386511f
c1894 656 0 0.038613f
c1895 654 0 0.0198452f
c1896 652 0 0.0355359f
c1897 646 0 0.038651f
c1898 643 0 0.377368f
c1899 642 0 2.3142f
c1900 640 0 0.0386131f
c1901 638 0 0.0197692f
c1902 636 0 0.0355329f
c1903 630 0 0.038647f
c1904 629 0 0.038613f
c1905 627 0 0.0198452f
c1906 625 0 0.0355329f
c1907 619 0 0.0386465f
c1908 618 0 0.0386131f
c1909 616 0 0.0197692f
c1910 614 0 0.0355329f
c1911 608 0 0.0386466f
c1912 607 0 0.038613f
c1913 605 0 0.0198452f
c1914 603 0 0.0355329f
c1915 597 0 0.038651f
c1916 596 0 0.0386131f
c1917 594 0 0.0197692f
c1918 592 0 0.0355359f
c1919 586 0 0.0386511f
c1920 585 0 0.038613f
c1921 583 0 0.0198452f
c1922 581 0 0.0354949f
c1923 575 0 0.038651f
c1924 574 0 0.0415101f
c1925 572 0 0.0236151f
c1926 570 0 0.0418966f
c1927 564 0 0.0415481f
c1928 563 0 0.04151f
c1929 561 0 0.0236077f
c1930 559 0 0.041897f
c1931 553 0 0.041548f
c1932 552 0 0.0386131f
c1933 550 0 0.0197692f
c1934 548 0 0.0354949f
c1935 542 0 0.0386511f
c1936 541 0 0.038613f
c1937 539 0 0.0198452f
c1938 537 0 0.0355359f
c1939 531 0 0.038651f
c1940 530 0 0.0386131f
c1941 528 0 0.0197692f
c1942 526 0 0.0355329f
c1943 520 0 0.0386511f
c1944 519 0 0.038613f
c1945 517 0 0.0198452f
c1946 515 0 0.0355329f
c1947 509 0 0.0386465f
c1948 508 0 0.0386131f
c1949 506 0 0.0197692f
c1950 504 0 0.0355329f
c1951 498 0 0.0386466f
c1952 497 0 0.038613f
c1953 495 0 0.0198452f
c1954 493 0 0.0355329f
c1955 487 0 0.0386497f
c1956 486 0 0.0386131f
c1957 484 0 0.0197692f
c1958 482 0 0.0355359f
c1959 476 0 0.0386511f
c1960 473 0 0.36055f
c1961 470 0 0.038613f
c1962 468 0 0.0198452f
c1963 466 0 0.0355359f
c1964 460 0 0.038651f
c1965 459 0 0.0414815f
c1966 457 0 0.0243145f
c1967 455 0 0.0417678f
c1968 449 0 0.0415481f
c1969 408 0 0.00819981f
c1970 405 0 0.00761841f
c1971 404 0 0.0454794f
c1972 402 0 0.00758746f
c1973 399 0 0.00763648f
c1974 396 0 0.00818193f
c1975 393 0 0.221105f
c1976 392 0 0.00270574f
c1977 390 0 0.00274021f
c1978 389 0 0.00178221f
c1979 387 0 0.00257384f
c1980 386 0 0.00188469f
c1981 383 0 0.00257384f
c1982 382 0 0.00188469f
c1983 380 0 0.00178482f
c1984 379 0 0.00722668f
c1985 378 0 0.00291634f
c1986 377 0 0.00270574f
c1987 370 0 0.0086042f
c1988 367 0 0.00804088f
c1989 366 0 0.0458085f
c1990 364 0 0.00799233f
c1991 361 0 0.00804088f
c1992 358 0 0.0086042f
c1993 354 0 0.00736821f
c1994 350 0 0.0145049f
c1995 349 0 1.4427e-19
c1996 348 0 0.00754331f
c1997 346 0 4.54604e-19
c1998 345 0 0.0403198f
c1999 344 0 0.00813041f
c2000 343 0 0.00835564f
c2001 341 0 0.021606f
c2002 339 0 0.00849736f
c2003 329 0 0.00558087f
c2004 325 0 0.00558087f
c2005 322 0 0.573369f
c2006 320 0 0.0765246f
c2007 318 0 0.00451087f
c2008 311 0 0.00402402f
c2009 293 0 0.00247962f
c2010 289 0 0.00402815f
c2011 285 0 0.00277088f
c2012 284 0 9.42344e-19
c2013 278 0 0.00277088f
c2014 277 0 9.42344e-19
c2015 272 0 0.00402815f
c2016 265 0 0.00247962f
c2017 245 0 0.00402402f
c2018 241 0 0.0045048f
c2019 239 0 0.00558087f
c2020 235 0 0.00558087f
c2021 230 0 0.0759754f
c2022 229 0 0.129746f
c2023 227 0 0.0424866f
c2024 204 0 0.186846f
c2025 203 0 0.0164515f
c2026 197 0 0.0271465f
c2027 188 0 0.187829f
c2028 187 0 0.0155801f
c2029 183 0 0.0184509f
c2030 181 0 0.0184509f
c2031 180 0 0.213569f
c2032 179 0 0.00859754f
c2033 178 0 0.0183406f
c2034 177 0 0.00797292f
c2035 175 0 0.0221444f
c2036 173 0 0.0183755f
c2037 171 0 0.0183755f
c2038 170 0 2.24476f
c2039 169 0 0.0139872f
c2040 168 0 0.206146f
c2041 167 0 0.00740169f
c2042 166 0 0.0167081f
c2043 165 0 0.00812208f
c2044 164 0 0.196715f
c2045 162 0 0.117643f
c2046 161 0 0.152908f
c2047 155 0 0.201614f
c2048 103 0 0.355051f
c2049 65 0 0.79505f
c2050 52 0 0.199549f
c2051 46 0 0.123563f
c2052 45 0 0.223076f
c2053 43 0 0.15556f
r2054 928 931 0.130141
r2055 925 928 0.130141
r2056 922 925 0.130141
r2057 919 922 0.130141
r2058 860 863 0.0551181
r2059 853 856 0.130141
r2060 850 853 0.130141
r2061 847 850 0.130141
r2062 844 847 0.130141
r2063 804 806 0.864
r2064 803 806 6
r2065 801 806 6
r2066 800 803 6
r2067 800 801 6
r2068 798 800 0.864
r2069 797 800 0.864
r2070 767 769 0.864
r2071 766 769 0.864
r2072 765 863 0.0275591
r2073 765 769 6
r2074 762 860 0.0275591
r2075 762 769 6
r2076 761 765 6
r2077 761 762 6
r2078 759 761 0.864
r2079 676 718 4
r2080 676 678 22.1333
r2081 674 718 4
r2082 674 717 4
r2083 674 675 12
r2084 668 717 4
r2085 668 670 22.1333
r2086 665 716 4
r2087 665 667 22.1333
r2088 664 675 0.190575
r2089 663 716 4
r2090 663 715 4
r2091 663 664 12
r2092 657 715 4
r2093 657 659 22.1333
r2094 654 714 4
r2095 654 656 22.1333
r2096 653 664 0.190575
r2097 652 714 4
r2098 652 713 4
r2099 652 653 12
r2100 646 713 4
r2101 646 648 22.1333
r2102 644 645 6
r2103 643 644 5.20995
r2104 642 645 0.28875
r2105 641 643 5.20995
r2106 641 642 6
r2107 638 712 4
r2108 638 640 22.1333
r2109 637 653 0.190575
r2110 636 712 4
r2111 636 711 4
r2112 636 637 12
r2113 630 711 4
r2114 630 632 22.1333
r2115 627 710 4
r2116 627 629 22.1333
r2117 626 637 0.190575
r2118 625 710 4
r2119 625 709 4
r2120 625 626 12
r2121 619 709 4
r2122 619 621 22.1333
r2123 616 708 4
r2124 616 618 22.1333
r2125 615 626 0.190575
r2126 614 708 4
r2127 614 707 4
r2128 614 615 12
r2129 608 707 4
r2130 608 610 22.1333
r2131 605 706 4
r2132 605 607 22.1333
r2133 604 615 0.190575
r2134 603 706 4
r2135 603 705 4
r2136 603 604 12
r2137 597 705 4
r2138 597 599 22.1333
r2139 594 704 4
r2140 594 596 22.1333
r2141 593 604 0.190575
r2142 592 704 4
r2143 592 703 4
r2144 592 593 12
r2145 586 703 4
r2146 586 588 22.1333
r2147 583 702 4
r2148 583 585 22.1333
r2149 582 593 0.190575
r2150 581 702 4
r2151 581 701 4
r2152 581 582 12
r2153 575 701 4
r2154 575 577 22.1333
r2155 572 700 4
r2156 572 574 22.1333
r2157 571 582 0.190575
r2158 570 700 4
r2159 570 699 4
r2160 570 571 12
r2161 564 699 4
r2162 564 566 22.1333
r2163 561 698 4
r2164 561 563 22.1333
r2165 559 698 4
r2166 559 697 4
r2167 559 560 12
r2168 553 697 4
r2169 553 555 22.1333
r2170 550 696 4
r2171 550 552 22.1333
r2172 549 560 0.190575
r2173 548 696 4
r2174 548 695 4
r2175 548 549 12
r2176 542 695 4
r2177 542 544 22.1333
r2178 539 694 4
r2179 539 541 22.1333
r2180 538 549 0.190575
r2181 537 694 4
r2182 537 693 4
r2183 537 538 12
r2184 531 693 4
r2185 531 533 22.1333
r2186 528 692 4
r2187 528 530 22.1333
r2188 527 538 0.190575
r2189 526 692 4
r2190 526 691 4
r2191 526 527 12
r2192 520 691 4
r2193 520 522 22.1333
r2194 517 690 4
r2195 517 519 22.1333
r2196 516 527 0.190575
r2197 515 690 4
r2198 515 689 4
r2199 515 516 12
r2200 509 689 4
r2201 509 511 22.1333
r2202 506 688 4
r2203 506 508 22.1333
r2204 505 516 0.190575
r2205 504 688 4
r2206 504 687 4
r2207 504 505 12
r2208 498 687 4
r2209 498 500 22.1333
r2210 495 686 4
r2211 495 497 22.1333
r2212 494 505 0.190575
r2213 493 686 4
r2214 493 685 4
r2215 493 494 12
r2216 487 685 4
r2217 487 489 22.1333
r2218 484 684 4
r2219 484 486 22.1333
r2220 483 494 0.190575
r2221 482 684 4
r2222 482 683 4
r2223 482 483 12
r2224 476 683 4
r2225 476 478 22.1333
r2226 474 475 6
r2227 473 474 5.20995
r2228 472 475 0.28875
r2229 471 473 5.20995
r2230 471 472 6
r2231 468 682 4
r2232 468 470 22.1333
r2233 467 483 0.190575
r2234 466 682 4
r2235 466 681 4
r2236 466 467 12
r2237 460 681 4
r2238 460 462 22.1333
r2239 457 680 4
r2240 457 459 22.1333
r2241 456 467 0.190575
r2242 455 680 4
r2243 455 679 4
r2244 455 456 12
r2245 449 679 4
r2246 449 451 22.1333
r2247 408 931 6.5
r2248 407 408 6.5
r2249 405 928 6.5
r2250 404 407 0.11904
r2251 404 405 6.5
r2252 402 925 6.5
r2253 399 922 6.5
r2254 398 399 6.5
r2255 396 919 6.5
r2256 395 398 0.11904
r2257 395 396 6.5
r2258 387 891 6.5
r2259 386 387 6.5
r2260 383 885 6.5
r2261 382 383 6.5
r2262 373 860 6.5
r2263 372 373 6.5
r2264 370 856 6.5
r2265 369 370 6.5
r2266 367 853 6.5
r2267 366 369 0.11904
r2268 366 367 6.5
r2269 364 850 6.5
r2270 361 847 6.5
r2271 360 361 6.5
r2272 358 844 6.5
r2273 357 360 0.11904
r2274 357 358 6.5
r2275 354 355 0.176398
r2276 350 351 0.41123
r2277 348 349 0.407252
r2278 346 347 0.407252
r2279 344 345 0.380093
r2280 342 343 1.05139
r2281 340 341 0.176398
r2282 339 404 0.11904
r2283 339 402 6.5
r2284 339 398 0.11904
r2285 338 354 0.036209
r2286 338 339 0.0422727
r2287 335 393 0.00682285
r2288 334 355 0.022963
r2289 334 335 1.13291
r2290 333 350 0.036209
r2291 332 393 0.0262536
r2292 332 333 0.665091
r2293 329 912 6.5
r2294 328 329 6.5
r2295 325 909 6.5
r2296 324 328 0.140909
r2297 324 325 6.5
r2298 322 328 0.224045
r2299 321 348 0.022963
r2300 320 351 0.022963
r2301 320 321 0.391727
r2302 319 392 0.0262536
r2303 318 322 0.0346412
r2304 318 319 0.260682
r2305 311 903 6.5
r2306 310 311 6.5
r2307 308 392 0.00682285
r2308 308 310 0.221227
r2309 307 390 0.0262536
r2310 306 392 0.0262536
r2311 306 307 0.0775
r2312 305 349 0.036209
r2313 304 391 0.0262536
r2314 304 305 0.0535455
r2315 303 391 0.0262536
r2316 302 390 0.00682285
r2317 302 303 0.587591
r2318 301 389 0.0262536
r2319 300 390 0.0262536
r2320 300 301 0.0775
r2321 293 897 6.5
r2322 292 293 6.5
r2323 290 389 0.00682285
r2324 290 292 0.221227
r2325 288 389 0.0262536
r2326 288 289 0.260682
r2327 286 386 0.0391669
r2328 286 287 0.124
r2329 285 894 6.5
r2330 284 287 0.0350834
r2331 284 285 6.5
r2332 282 289 0.0346412
r2333 282 284 0.224045
r2334 279 382 0.0391669
r2335 279 280 0.124
r2336 278 888 6.5
r2337 277 280 0.0350834
r2338 277 278 6.5
r2339 275 277 0.224045
r2340 273 380 0.0262536
r2341 272 275 0.0346412
r2342 272 273 0.260682
r2343 265 879 6.5
r2344 264 265 6.5
r2345 262 380 0.00682285
r2346 262 264 0.221227
r2347 261 379 0.00682285
r2348 260 391 0.00682285
r2349 260 261 2.73082
r2350 259 378 0.0262536
r2351 258 380 0.0262536
r2352 258 259 0.0803182
r2353 257 346 0.036209
r2354 256 379 0.0262536
r2355 256 257 0.0535455
r2356 255 379 0.0262536
r2357 254 378 0.00682285
r2358 254 255 0.587591
r2359 253 377 0.0262536
r2360 252 378 0.0262536
r2361 252 253 0.0746818
r2362 245 873 6.5
r2363 244 245 6.5
r2364 242 377 0.00682285
r2365 242 244 0.221227
r2366 240 377 0.0262536
r2367 240 241 0.260682
r2368 239 870 6.5
r2369 238 239 6.5
r2370 235 867 6.5
r2371 234 238 0.140909
r2372 234 235 6.5
r2373 232 241 0.0346412
r2374 232 238 0.224045
r2375 231 344 0.022963
r2376 230 347 0.022963
r2377 230 231 0.391727
r2378 229 345 0.0699204
r2379 228 375 0.0262536
r2380 228 229 0.665091
r2381 227 375 0.0262536
r2382 226 342 0.036209
r2383 226 227 0.425545
r2384 224 372 0.0391669
r2385 224 225 0.124
r2386 223 863 6.5
r2387 222 225 0.0350834
r2388 222 223 6.5
r2389 220 343 0.036209
r2390 220 222 0.200091
r2391 218 340 0.022963
r2392 217 375 0.00682285
r2393 217 218 1.10191
r2394 216 366 0.11904
r2395 216 364 6.5
r2396 216 360 0.11904
r2397 215 341 0.036209
r2398 215 216 0.0422727
r2399 212 803 0.0275591
r2400 207 212 0.0551181
r2401 207 801 0.0275591
r2402 204 675 0.202125
r2403 202 645 0.818125
r2404 202 203 0.0126646
r2405 201 571 0.17325
r2406 195 197 0.0704671
r2407 194 814 1.35
r2408 194 197 10
r2409 192 811 1.35
r2410 192 812 1.35
r2411 192 197 10
r2412 191 195 0.00293613
r2413 191 194 10
r2414 191 192 10
r2415 188 560 0.17325
r2416 186 472 0.7931
r2417 186 187 0.00847354
r2418 185 456 0.202125
r2419 183 184 0.35852
r2420 182 204 0.0282857
r2421 181 182 0.610741
r2422 179 201 0.0282857
r2423 179 180 0.656002
r2424 177 178 0.403593
r2425 175 176 2.34561
r2426 173 174 0.403593
r2427 172 188 0.0282857
r2428 171 172 0.656002
r2429 169 170 2.72749
r2430 167 185 0.0282857
r2431 167 168 0.610741
r2432 165 166 0.35852
r2433 164 181 0.0449372
r2434 163 183 0.0449372
r2435 163 164 0.31185
r2436 162 931 0.0401501
r2437 161 184 0.0282857
r2438 161 162 0.77385
r2439 160 801 0.0464078
r2440 159 203 0.0279434
r2441 159 160 2.85862
r2442 158 203 0.0279434
r2443 157 175 0.0447067
r2444 157 158 0.879083
r2445 156 177 0.0282857
r2446 155 919 0.0401501
r2447 155 156 1.04335
r2448 154 180 0.0449372
r2449 153 178 0.0449372
r2450 153 154 0.2464
r2451 148 912 0.0392897
r2452 148 150 0.0539
r2453 147 912 0.0392897
r2454 146 909 0.0392897
r2455 146 147 0.1078
r2456 144 794 0.864
r2457 144 150 6
r2458 143 144 6
r2459 141 909 0.0392897
r2460 141 143 0.0539
r2461 136 906 0.0392897
r2462 136 138 0.0539
r2463 135 906 0.0392897
r2464 134 903 0.0392897
r2465 134 135 0.1078
r2466 132 791 0.864
r2467 132 138 6
r2468 131 132 6
r2469 129 903 0.0392897
r2470 129 131 0.0539
r2471 124 900 0.0392897
r2472 124 126 0.0539
r2473 123 900 0.0392897
r2474 122 897 0.0392897
r2475 122 123 0.1078
r2476 120 788 0.864
r2477 120 126 6
r2478 119 120 6
r2479 117 897 0.0392897
r2480 117 119 0.0539
r2481 112 894 0.0392897
r2482 112 114 0.0539
r2483 111 894 0.0392897
r2484 110 891 0.0392897
r2485 110 111 0.1078
r2486 108 785 0.864
r2487 108 114 6
r2488 107 108 6
r2489 105 891 0.0392897
r2490 105 107 0.0539
r2491 104 195 0.0336511
r2492 103 176 0.0265517
r2493 103 104 1.24965
r2494 98 888 0.0392897
r2495 98 100 0.0539
r2496 97 888 0.0392897
r2497 96 885 0.0392897
r2498 96 97 0.1078
r2499 94 782 0.864
r2500 94 100 6
r2501 93 94 6
r2502 91 885 0.0392897
r2503 91 93 0.0539
r2504 86 882 0.0392897
r2505 86 88 0.0539
r2506 85 882 0.0392897
r2507 84 879 0.0392897
r2508 84 85 0.1078
r2509 82 779 0.864
r2510 82 88 6
r2511 81 82 6
r2512 79 879 0.0392897
r2513 79 81 0.0539
r2514 74 876 0.0392897
r2515 74 76 0.0539
r2516 73 876 0.0392897
r2517 72 873 0.0392897
r2518 72 73 0.1078
r2519 70 776 0.864
r2520 70 76 6
r2521 69 70 6
r2522 67 873 0.0392897
r2523 67 69 0.0539
r2524 66 169 0.0282857
r2525 65 191 0.0565205
r2526 65 66 3.31678
r2527 60 870 0.0392897
r2528 60 62 0.0539
r2529 59 870 0.0392897
r2530 58 867 0.0392897
r2531 58 59 0.1078
r2532 56 773 0.864
r2533 56 62 6
r2534 55 56 6
r2535 53 867 0.0392897
r2536 53 55 0.0539
r2537 52 171 0.0449372
r2538 51 173 0.0449372
r2539 51 52 0.2464
r2540 50 762 0.0547434
r2541 49 187 0.0326053
r2542 49 50 4.30622
r2543 48 187 0.0326053
r2544 47 170 0.0449372
r2545 47 48 0.359975
r2546 46 856 0.0401501
r2547 45 174 0.0282857
r2548 45 46 1.05105
r2549 44 165 0.0282857
r2550 43 844 0.0401501
r2551 43 44 0.76615
r2552 42 168 0.0449372
r2553 41 166 0.0449372
r2554 41 42 0.31185
.ends

.subckt PM_BUFFER_2_VPCAS 7 8 9 10 15 16 20 32 42 45 49 52 53 54 62 64 71 73 74
+ 76 77 79 80 82 94 120 121 123 124
c222 120 0 0.0708782f
c223 94 0 0.279417f
c224 80 0 0.132589f
c225 77 0 0.132751f
c226 74 0 0.132589f
c227 71 0 0.132576f
c228 54 0 0.0175248f
c229 49 0 0.0233556f
c230 45 0 0.0420815f
c231 42 0 0.108333f
c232 32 0 0.0419448f
c233 20 0 0.0162212f
c234 16 0 0.258512f
c235 15 0 0.0162212f
c236 10 0 0.0210088f
c237 9 0 0.0272645f
c238 8 0 0.015632f
c239 7 0 0.0206837f
r240 93 94 12
r241 90 91 12
r242 87 88 12
r243 84 85 12
r244 80 93 7.91111
r245 80 82 22.1333
r246 77 90 7.91111
r247 77 79 22.1333
r248 74 87 7.91111
r249 74 76 22.1333
r250 71 84 7.91111
r251 71 73 22.1333
r252 65 124 0.031
r253 65 123 0.031
r254 64 65 4.33333
r255 62 64 0.128932
r256 59 121 0.031
r257 59 120 0.031
r258 58 62 0.128932
r259 58 59 4.33333
r260 53 123 0.069381
r261 52 53 0.062
r262 52 121 0.0708571
r263 45 112 2.16667
r264 44 45 2.16667
r265 42 54 0.0295909
r266 42 44 0.0338182
r267 40 54 0.00507465
r268 40 124 2.34124
r269 35 49 0.00507465
r270 35 120 2.34567
r271 32 108 2.16667
r272 31 32 2.16667
r273 29 49 0.0295909
r274 29 31 0.0338182
r275 19 91 0.336
r276 19 20 0.0326053
r277 18 94 0.336
r278 18 20 0.0326053
r279 17 112 0.1155
r280 16 108 0.1155
r281 14 85 0.336
r282 14 15 0.0326053
r283 13 88 0.336
r284 13 15 0.0326053
r285 11 20 0.00847354
r286 11 12 0.22225
r287 10 17 0.0430221
r288 9 12 0.0430221
r289 9 10 0.57925
r290 7 16 0.0430221
r291 7 8 0.57925
r292 6 8 0.0430221
r293 5 15 0.00847354
r294 5 6 0.22225
.ends

.subckt PM_BUFFER_2_ND7 23 25 26 27 28 29 30 32 35 37 38 39 40 41 42 44 45 46 47
+ 48 49 51 53 54 55 56 57 62 64 72 78 81 86 92 93 95 96 97 101 104 105 106 107
+ 109 110 114 118 124 125 132 135 142 143 146 150 152 154 155 156 157 160 162
+ 164 166 167 171 174 175 177 178 183 184 190 191 194 196 197 201 202 207 210
+ 212 213 216 217 219 241 242 245 247 251 253 255 256 258 262 264 266 267 269
+ 273 275 277 278 280 284 286 288 289 291 295 297 299 300 302 303 305 309 311
+ 313 314 316 320 322 324 325 327 331 333 335 336 338 342 344 346 347 349 353
+ 356 357 360 362 364 366 368 370 372 374 376 378 400 401 404 407 409 414 417
+ 421 422 428 434 435 436 442 443 448 449 451 456 462 463 464 470 477 478 484
+ 485 491 493 575 581
c1132 581 0 0.00585777f
c1133 575 0 0.00615094f
c1134 448 0 0.00615094f
c1135 434 0 0.00576774f
c1136 378 0 0.0216749f
c1137 376 0 0.0197525f
c1138 374 0 0.0197525f
c1139 372 0 0.0197525f
c1140 370 0 0.0240051f
c1141 368 0 0.0240051f
c1142 366 0 0.0197525f
c1143 364 0 0.0197525f
c1144 362 0 0.0197525f
c1145 360 0 0.0216749f
c1146 357 0 0.358817f
c1147 356 0 0.0677087f
c1148 353 0 0.0417678f
c1149 349 0 0.0422337f
c1150 347 0 0.0216749f
c1151 344 0 0.0419192f
c1152 342 0 0.0353971f
c1153 338 0 0.0393418f
c1154 336 0 0.0197525f
c1155 333 0 0.0390376f
c1156 331 0 0.0353971f
c1157 327 0 0.0393515f
c1158 325 0 0.0197525f
c1159 322 0 0.0390383f
c1160 320 0 0.0353971f
c1161 316 0 0.0393405f
c1162 314 0 0.0197525f
c1163 311 0 0.0390376f
c1164 309 0 0.0417678f
c1165 305 0 0.0429144f
c1166 303 0 0.0239178f
c1167 300 0 0.0426016f
c1168 299 0 0.0429144f
c1169 297 0 0.0239178f
c1170 295 0 0.0417678f
c1171 289 0 0.042617f
c1172 288 0 0.0393405f
c1173 286 0 0.0197525f
c1174 284 0 0.0353971f
c1175 278 0 0.039053f
c1176 277 0 0.0393515f
c1177 275 0 0.0197525f
c1178 273 0 0.0353971f
c1179 267 0 0.0390537f
c1180 266 0 0.0393418f
c1181 264 0 0.0197525f
c1182 262 0 0.0353971f
c1183 256 0 0.039053f
c1184 255 0 0.0422337f
c1185 253 0 0.0216749f
c1186 251 0 0.0417678f
c1187 245 0 0.0419347f
c1188 242 0 0.368861f
c1189 241 0 0.0677253f
c1190 219 0 0.00942417f
c1191 218 0 0.0153459f
c1192 217 0 2.1422e-19
c1193 216 0 0.00263565f
c1194 213 0 0.00323508f
c1195 197 0 1.73479e-19
c1196 184 0 1.63573e-19
c1197 183 0 0.0025536f
c1198 178 0 0.00320664f
c1199 175 0 2.1422e-19
c1200 171 0 0.00906042f
c1201 169 0 0.015373f
c1202 167 0 4.08146e-19
c1203 162 0 0.00534682f
c1204 157 0 0.0153355f
c1205 154 0 0.0121292f
c1206 152 0 0.00253583f
c1207 150 0 0.0154813f
c1208 146 0 1.45233f
c1209 143 0 0.0443134f
c1210 142 0 1.41247f
c1211 135 0 8.25253e-20
c1212 125 0 7.76483e-19
c1213 124 0 0.246487f
c1214 118 0 6.98559e-19
c1215 114 0 0.012996f
c1216 110 0 0.0813466f
c1217 109 0 0.0144115f
c1218 107 0 0.0141983f
c1219 105 0 0.00219299f
c1220 104 0 0.00445655f
c1221 101 0 0.00445655f
c1222 97 0 0.061937f
c1223 96 0 0.0190253f
c1224 95 0 0.233367f
c1225 93 0 8.73795e-19
c1226 92 0 0.0699752f
c1227 86 0 7.76483e-19
c1228 72 0 0.0447131f
c1229 64 0 0.127085f
c1230 62 0 0.119664f
c1231 59 0 0.0220088f
c1232 57 0 0.0165991f
c1233 56 0 0.213564f
c1234 55 0 0.0116725f
c1235 54 0 0.0173178f
c1236 51 0 0.0198915f
c1237 49 0 0.0174381f
c1238 48 0 0.241458f
c1239 47 0 0.0127569f
c1240 46 0 0.016587f
c1241 45 0 0.00845761f
c1242 44 0 0.218832f
c1243 42 0 0.0229568f
c1244 41 0 0.206874f
c1245 40 0 0.021324f
c1246 39 0 0.0186089f
c1247 38 0 0.020457f
c1248 37 0 0.0186045f
c1249 35 0 0.175697f
c1250 32 0 0.191381f
c1251 30 0 0.020457f
c1252 29 0 0.185307f
c1253 28 0 0.0221136f
c1254 27 0 0.018637f
c1255 26 0 0.0229568f
c1256 25 0 0.0186335f
c1257 23 0 0.195785f
r1258 537 540 0.0548417
r1259 527 530 0.0565036
r1260 493 581 10
r1261 491 493 1.35
r1262 488 581 0.056
r1263 488 493 10
r1264 487 581 10
r1265 487 488 10
r1266 485 487 1.35
r1267 484 487 1.35
r1268 480 575 10
r1269 478 480 1.35
r1270 477 480 1.35
r1271 473 575 0.056
r1272 473 480 10
r1273 472 575 10
r1274 472 473 10
r1275 470 472 1.35
r1276 464 466 1.35
r1277 463 466 1.35
r1278 462 466 10
r1279 459 462 0.056
r1280 459 466 10
r1281 458 462 10
r1282 458 459 10
r1283 456 458 1.35
r1284 451 560 10
r1285 449 451 1.35
r1286 448 560 0.056
r1287 448 451 10
r1288 445 448 10
r1289 445 560 10
r1290 443 445 1.35
r1291 442 445 1.35
r1292 438 554 10
r1293 436 438 1.35
r1294 435 438 1.35
r1295 434 554 0.056
r1296 434 438 10
r1297 430 434 10
r1298 430 554 10
r1299 428 430 1.35
r1300 422 424 0.864
r1301 421 424 0.864
r1302 420 540 0.0282518
r1303 420 424 6
r1304 417 537 0.0276978
r1305 417 424 6
r1306 416 420 6
r1307 416 417 6
r1308 414 416 0.864
r1309 407 409 0.864
r1310 406 530 0.0276978
r1311 406 409 6
r1312 404 527 0.0265899
r1313 404 409 6
r1314 403 406 6
r1315 403 404 6
r1316 401 403 0.864
r1317 400 403 0.864
r1318 358 517 6
r1319 357 358 5.20995
r1320 356 517 0.2975
r1321 355 357 5.20995
r1322 355 356 6
r1323 353 379 4
r1324 353 378 4
r1325 353 354 12
r1326 347 379 4
r1327 347 349 14.1333
r1328 344 378 4
r1329 344 346 14.1333
r1330 343 354 0.190575
r1331 342 377 4
r1332 342 376 4
r1333 342 343 12
r1334 336 377 4
r1335 336 338 14.1333
r1336 333 376 4
r1337 333 335 14.1333
r1338 332 343 0.190575
r1339 331 375 4
r1340 331 374 4
r1341 331 332 12
r1342 325 375 4
r1343 325 327 14.1333
r1344 322 374 4
r1345 322 324 14.1333
r1346 321 332 0.190575
r1347 320 373 4
r1348 320 372 4
r1349 320 321 12
r1350 314 373 4
r1351 314 316 14.1333
r1352 311 372 4
r1353 311 313 14.1333
r1354 310 321 0.190575
r1355 309 371 4
r1356 309 370 4
r1357 309 310 12
r1358 303 371 4
r1359 303 305 14.1333
r1360 300 370 4
r1361 300 302 14.1333
r1362 297 369 4
r1363 297 299 14.1333
r1364 295 369 4
r1365 295 368 4
r1366 295 296 12
r1367 289 368 4
r1368 289 291 14.1333
r1369 286 367 4
r1370 286 288 14.1333
r1371 285 296 0.190575
r1372 284 367 4
r1373 284 366 4
r1374 284 285 12
r1375 278 366 4
r1376 278 280 14.1333
r1377 275 365 4
r1378 275 277 14.1333
r1379 274 285 0.190575
r1380 273 365 4
r1381 273 364 4
r1382 273 274 12
r1383 267 364 4
r1384 267 269 14.1333
r1385 264 363 4
r1386 264 266 14.1333
r1387 263 274 0.190575
r1388 262 363 4
r1389 262 362 4
r1390 262 263 12
r1391 256 362 4
r1392 256 258 14.1333
r1393 253 361 4
r1394 253 255 14.1333
r1395 252 263 0.190575
r1396 251 361 4
r1397 251 360 4
r1398 251 252 12
r1399 245 360 4
r1400 245 247 14.1333
r1401 243 499 6
r1402 242 243 5.20995
r1403 241 499 0.2975
r1404 240 242 5.20995
r1405 240 241 6
r1406 217 587 6.5
r1407 216 217 6.5
r1408 213 488 6.5
r1409 212 213 6.5
r1410 210 581 6.5
r1411 209 210 6.5
r1412 207 209 0.0360665
r1413 206 207 0.00171745
r1414 201 473 6.5
r1415 200 202 0.0212131
r1416 200 201 6.5
r1417 197 462 6.5
r1418 196 197 6.5
r1419 194 459 6.5
r1420 193 194 6.5
r1421 190 560 6.5
r1422 189 191 0.0373699
r1423 189 190 6.5
r1424 184 434 6.5
r1425 183 184 6.5
r1426 178 554 6.5
r1427 177 178 6.5
r1428 175 548 6.5
r1429 174 175 6.5
r1430 170 218 0.0220687
r1431 169 170 0.589686
r1432 167 168 0.312195
r1433 166 206 0.000410628
r1434 165 212 0.0430816
r1435 165 166 0.17083
r1436 164 205 0.00744235
r1437 163 207 0.000410628
r1438 163 164 0.180284
r1439 162 202 0.0578538
r1440 161 205 0.160132
r1441 161 162 0.211284
r1442 159 202 0.0178599
r1443 159 160 0.17083
r1444 158 193 0.0178329
r1445 157 158 0.562527
r1446 156 191 0.000762983
r1447 155 156 0.17083
r1448 153 191 0.000762983
r1449 153 154 0.397943
r1450 152 183 0.042
r1451 151 154 0.15418
r1452 151 152 0.397943
r1453 150 177 0.0430816
r1454 149 152 0.01
r1455 149 150 0.158518
r1456 147 183 0.052
r1457 147 148 0.133739
r1458 145 172 0.038669
r1459 145 146 0.537288
r1460 143 356 3.25
r1461 142 143 3.25
r1462 140 143 0.269136
r1463 140 517 3.25
r1464 139 142 0.269136
r1465 139 140 3.25
r1466 137 219 0.00682285
r1467 137 139 0.8525
r1468 135 540 6.5
r1469 134 135 6.5
r1470 132 537 6.5
r1471 131 134 0.1395
r1472 131 132 6.5
r1473 129 219 0.0262536
r1474 129 131 3.23245
r1475 128 219 0.0262536
r1476 127 169 0.036209
r1477 127 128 1.53873
r1478 125 590 6.5
r1479 124 125 6.5
r1480 122 216 0.0262536
r1481 122 124 0.119773
r1482 121 218 0.0106182
r1483 120 216 0.00682285
r1484 120 121 0.224045
r1485 118 584 6.5
r1486 117 118 6.5
r1487 115 216 0.0262536
r1488 115 117 0.0662273
r1489 113 218 0.0220687
r1490 113 114 0.748227
r1491 112 114 0.0346412
r1492 111 167 0.036209
r1493 111 112 0.373409
r1494 110 157 0.036209
r1495 109 205 0.0410596
r1496 109 110 0.145136
r1497 108 200 0.015035
r1498 107 168 0.022963
r1499 107 108 0.691864
r1500 106 196 0.0391669
r1501 105 193 0.0242017
r1502 105 106 0.124
r1503 104 575 6.5
r1504 103 104 6.5
r1505 101 448 6.5
r1506 100 103 1.11318
r1507 100 101 6.5
r1508 98 155 0.0238899
r1509 98 100 0.00140909
r1510 97 160 0.0238899
r1511 97 103 0.00140909
r1512 96 172 0.0262279
r1513 95 148 0.022963
r1514 95 96 1.29777
r1515 93 551 6.5
r1516 92 93 6.5
r1517 90 174 0.0252522
r1518 90 92 0.0944091
r1519 89 172 0.0128435
r1520 88 174 0.00767684
r1521 88 89 0.165333
r1522 86 545 6.5
r1523 85 86 6.5
r1524 83 174 0.0252522
r1525 83 85 0.0944091
r1526 81 530 6.5
r1527 80 81 6.5
r1528 78 527 6.5
r1529 77 80 0.143727
r1530 77 78 6.5
r1531 75 171 0.0262536
r1532 75 77 2.6195
r1533 74 171 0.0262536
r1534 73 146 0.036209
r1535 73 74 2.22495
r1536 72 241 3.25
r1537 71 72 3.25
r1538 68 72 0.269136
r1539 68 499 3.25
r1540 67 71 0.269136
r1541 67 68 3.25
r1542 65 171 0.00682285
r1543 65 71 0.806
r1544 64 354 0.606375
r1545 63 310 0.498575
r1546 62 296 0.4928
r1547 61 252 0.61215
r1548 59 60 0.100851
r1549 58 64 0.0282857
r1550 57 58 0.114185
r1551 55 56 0.0927756
r1552 53 63 0.0282857
r1553 53 54 0.191185
r1554 51 52 0.0927756
r1555 50 62 0.0282857
r1556 49 50 0.191185
r1557 47 48 0.100851
r1558 45 61 0.0282857
r1559 45 46 0.114185
r1560 44 59 0.0449372
r1561 43 57 0.0449372
r1562 43 44 0.64295
r1563 42 590 0.0392897
r1564 41 60 0.0282857
r1565 41 42 0.818125
r1566 40 587 0.0392897
r1567 39 590 0.0392897
r1568 39 40 0.0847
r1569 38 584 0.0392897
r1570 37 587 0.0392897
r1571 37 38 0.0847
r1572 36 55 0.0282857
r1573 35 584 0.0392897
r1574 35 36 0.706475
r1575 34 56 0.0449372
r1576 33 54 0.0449372
r1577 33 34 0.5929
r1578 32 51 0.0449372
r1579 31 49 0.0449372
r1580 31 32 0.5929
r1581 30 551 0.0392897
r1582 29 52 0.0282857
r1583 29 30 0.7007
r1584 28 548 0.0392897
r1585 27 551 0.0392897
r1586 27 28 0.0847
r1587 26 545 0.0392897
r1588 25 548 0.0392897
r1589 25 26 0.0847
r1590 24 47 0.0282857
r1591 23 545 0.0392897
r1592 23 24 0.8239
r1593 22 48 0.0449372
r1594 21 46 0.0449372
r1595 21 22 0.64295
.ends

.subckt PM_BUFFER_2_VB2 34 36 37 39 41 52 54 55 57 59 61 63 64 67 70 96 99 100
+ 103 105 111 112 115 117 118 121 122 125 127 134 142 145 146 149 153 156 158
+ 160 164 167 168 171 175 178 181 185 186 187 188 189 190 193 197 198 200 202
+ 205 209 210 212 214 217 222 224 226 229 233 234 236 238 241 245 246 248 250
+ 253 257 258 260 262 265 269 270 273 274 277 279 286 289 291 292 295 296 299
+ 301 308 316 319 320 323 327 330 332 334 338 341 342 345 347 349 352 353 354
+ 355 356 357 358 359 362 363 365 366 367 369 373 374 375 376 379 383 384 385
+ 386 387 388 389 390 391 392 393 394 395 396 397 398 399 400 401 407 411 412
+ 414 418 419 420 425 426 427 428 429 430 431 432 433 434 435 436 437 438 439
+ 440 441 442 445 446 448 449 450 452 455 456 457 458 459 462 465 466 467 468
+ 469 470 471 472 514 520 525
c999 525 0 0.00101139f
c1000 520 0 0.00115728f
c1001 514 0 0.00436382f
c1002 472 0 0.011868f
c1003 471 0 0.0402573f
c1004 470 0 0.0718397f
c1005 469 0 0.0342404f
c1006 468 0 0.0245642f
c1007 467 0 0.0029469f
c1008 466 0 0.0532767f
c1009 465 0 1.08161f
c1010 462 0 0.042455f
c1011 460 0 0.0269155f
c1012 459 0 0.0610524f
c1013 458 0 0.031111f
c1014 457 0 0.0201216f
c1015 456 0 0.0556855f
c1016 455 0 1.02633f
c1017 452 0 0.0437483f
c1018 450 0 0.0029469f
c1019 449 0 0.0552679f
c1020 448 0 0.162626f
c1021 446 0 0.0556855f
c1022 445 0 0.160695f
c1023 443 0 0.0269874f
c1024 442 0 0.0584032f
c1025 441 0 0.031111f
c1026 440 0 0.0201216f
c1027 439 0 0.011868f
c1028 438 0 0.0366423f
c1029 437 0 0.0659049f
c1030 436 0 0.0362011f
c1031 435 0 0.024962f
c1032 434 0 0.0292165f
c1033 433 0 0.0325236f
c1034 432 0 0.0118594f
c1035 431 0 0.011892f
c1036 430 0 0.0233957f
c1037 429 0 0.0260963f
c1038 428 0 0.0110613f
c1039 427 0 0.011892f
c1040 426 0 0.0234294f
c1041 425 0 0.0262751f