* LVS netlist generated with ICnet by 'dlavila' on Mon Jan 20 2014 at 19:43:46

*
* Component pathname : $SC_filter/default.group/logic.views/nand_X4
*
.subckt nand_X4  O A B Vdd Vss

        M3 N$75 B Vss Vss n_18_mm w=1u l=0.18u m=1
        M4 O A Vdd Vdd p_18_mm w=3u l=0.18u m=1
        M1 O B Vdd Vdd p_18_mm w=3u l=0.18u m=1
        M2 O A N$75 Vss n_18_mm w=1u l=0.18u m=1
.ends nand_X4

